Circuit: * C:\Users\Nanodyn - Spare\OneDrive - Nanodyn\Documents\GitHub\Ventilator-control\LTspice\npn_high_side_switch.asc

Limiting rise time of source v1 to 0.2
Limiting fall time of source v1 to 0.2
Direct Newton iteration for .op point succeeded.

Date: Mon Sep 28 11:37:10 2020
Total elapsed time: 0.024 seconds.

tnom = 27
temp = 27
method = modified trap
totiter = 2416
traniter = 2410
tranpoints = 1135
accept = 1112
rejected = 23
matrix size = 6
fillins = 0
solver = Normal
Matrix Compiler1:       9 opcodes  0.0/[0.0]/0.0
Matrix Compiler2: 380 bytes object code size  0.1/0.0/[0.0]

